Fully controllable/Extented_case.m
function mpc = Extented_case()
% 14-bus : 400kV slack + 63kV meshed network + 20kV distribution loads and generators
% Without shunt susceptances for the initial network
% Distribution loads and generators placed directly on the secondary bus of each distribution OLTC
% No explicit 20kV feeder lines: aggregated loads and generators share the OLTC secondary bus

mpc.version = '2';
mpc.baseMVA = 100;

%% BUS DATA
% bus  type  Pd    Qd    Gs  Bs  area  Vm      Va   baseKV  zone  Vmax  Vmin
mpc.bus = [
% ----------------- Transmission network -----------------

%--- 400 kV network
 1    3     0     0     0   0   1     1.0125   0   400      1     1.05  0.95;
 2    1     0     0     0   0   1     1.000    0   400      1     1.05  0.95;
 3    1     0     0     0   0   1     1.000    0   400      1     1.05  0.95; 

%--- 63 kV meshed network
4    1     0     0     0   0   1     1.000   0    63      1     1.05  0.95;
5    1     0     0     0   0   1     1.000   0    63      1     1.05  0.95;
6    1     0     0     0   0   1     1.000   0    63      1     1.05  0.95;
7    1     0     0     0   0   1     1.000   0    63      1     1.05  0.95;
8    1     0     0     0   0   1     1.000   0    63      1     1.05  0.95;
9    1     0     0     0   0   1     1.000   0    63      1     1.05  0.95;
  
 %--- Generator connected via transformer from bus 8 (63kV)
10    2     0     0     0   0   1     1.010   0    20      1     1.05  0.95;

% ----------------- Distribution network -----------------

%--- 20 kV network (OLTC secondary buses — loads and generators placed directly here)

%--- Distribution connected to bus 4 (20kV)
11    1    60     14    0   0  1     1.000   0    20      1     1.05  0.95; % Aggregated load (n=5)

%--- Distribution connected to bus 6 (20kV)
12    2    40    10    0   0  1     1.010   0    20      1     1.05  0.95; % Aggregated load (n=5) + generator (n=2)

%--- Distribution connected to bus 7 (20kV)
13    2    50    12    0   0  1     1.010   0    20      1     1.05  0.95; % Aggregated load (n=5) + generator (n=2)

%--- Distribution connected to bus 9 (20kV)
14    1    50     20    0   0  1     1.000   0    20      1     1.05  0.95; % Aggregated load (n=5)
];

%% GENERATOR DATA
% bus   Pg    Qg   Qmax  Qmin   Vg      mBase  status  Pmax   Pmin
mpc.gen = [
1       30    0   600  -600   1.0125  100     1      1000     0;   % 400kV slack
10      60    0    27   -27   1.010   100     1       100     0;   % Subtransmission generator (single unit)
12      40    13   16   -16   1.010   100     1        75     0;   % Aggregated distribution generator (n=2)
13      50    17   18   -18   1.010   100     1        70     0;   % Aggregated distribution generator (n=2)
];

%% BRANCH DATA
% from_bus to_bus   r        x        b       rateA  rateB  rateC  ratio(Vf/Vt)  angle  status
mpc.branch = [

% ----------------- Transmission network -----------------

%--- 400 kV double-circuit lines (80km)
1   2    0.001  0.015  0.384  1000   1000   1000     0      0      1;
1   2    0.001  0.015  0.384  1000   1000   1000     0      0      1;

1   3    0.001  0.015  0.384  1000   1000   1000     0      0      1;
1   3    0.001  0.015  0.384  1000   1000   1000     0      0      1;

%--- OLTC (400 -> 63 kV), Sn = 170 MVA
2    4    0.0017   0.077   0.001   170   190   210   1.00   0      1;
3    6    0.0018   0.082   0.001   170   190   210   1.00   0      1;

 %--- 63 kV double-circuit lines (20km)
4    5    0.06   0.21  0.0022  80  80   80   0      0      1;
4    5    0.06   0.21  0.0022  80  80   80   0      0      1;

4    7    0.06   0.21  0.0022  80  80   80   0      0      1;
4    7    0.06   0.21  0.0022  80  80   80   0      0      1;

5    6    0.06   0.21  0.0022  80  80   80   0      0      1;
5    6    0.06   0.21  0.0022  80  80   80   0      0      1;

6    9    0.06   0.21  0.0022  80  80   80   0      0      1;
6    9    0.06   0.21  0.0022  80  80   80   0      0      1;

7    8    0.06   0.21  0.0022  80  80   80   0      0      1;
7    8    0.06   0.21  0.0022  80  80   80   0      0      1;

8    9    0.06   0.21  0.0022  80  80   80   0      0      1;
8    9    0.06   0.21  0.0022  80  80   80   0      0      1;

%--- Transformer (63 -> 20 kV), Sn = 125 MVA, generator step-up (single 100 MW unit at bus 10)
8    10   0.0028   0.112   0.001   125   140   150   1.00   0      1;

% ----------------- Distribution network -----------------

%--- OLTC (63 -> 20 kV), Sn = 70 MVA, distribution substation
4    11   0.0055   0.164   0.001   70    80    90    1.00   0      1;
%--- OLTC (63 -> 20 kV), Sn = 100 MVA, distribution substation with embedded generation
6    12   0.0034   0.120   0.001   100   110   120   1.00   0      1;
7    13   0.0034   0.120   0.001   100   110   120   1.00   0      1;
%--- OLTC (63 -> 20 kV), Sn = 70 MVA, distribution substation
9    14   0.0055   0.164   0.001   70    80    90    1.00   0      1;
];


end
